&share
 wrf_core = 'ARW',
 max_dom = 2,
 start_date = 'startTime',
 end_date   = 'endTime',
 interval_seconds = 'LbcIntervalSeconds'
 io_form_geogrid = 2,
/

&ungrib
 out_format = 'WPS',
 prefix = '{{UngribPrefix}}',
/

&metgrid
 fg_name = 'FILE'
 io_form_metgrid = 2,
/
